256
Lattice="14.4 0.0 8.817456953860943e-16 2.3156966155343566e-15 14.4 8.817456953860943e-16 0.0 0.0 14.4" Properties=species:S:1:pos:R:3 pbc="T T T"
Cr       3.60000000       1.80000000       1.80000000
Cr       3.60000000       1.80000000       9.00000000
Cr       3.60000000       1.80000000      12.60000000
Cr       3.60000000       5.40000000       1.80000000
Cr       3.60000000       5.40000000       5.40000000
Cr       3.60000000       5.40000000       9.00000000
Cr       3.60000000       5.40000000      12.60000000
Cr       3.60000000       9.00000000       1.80000000
Cr       3.60000000      12.60000000       1.80000000
Cr       3.60000000      12.60000000       5.40000000
Cr       3.60000000      12.60000000       9.00000000
Cr       3.60000000      12.60000000      12.60000000
Cr       0.00000000       1.80000000       9.00000000
Cr       0.00000000       1.80000000      12.60000000
Cr       0.00000000       5.40000000       1.80000000
Cr       0.00000000       5.40000000       9.00000000
Cr       0.00000000       5.40000000      12.60000000
Cr       0.00000000       9.00000000       9.00000000
Cr       0.00000000       9.00000000      12.60000000
Cr       0.00000000      12.60000000       9.00000000
Cr       3.60000000       1.80000000       5.40000000
Cr       3.60000000       9.00000000       5.40000000
Cr       3.60000000       9.00000000       9.00000000
Cr       3.60000000       9.00000000      12.60000000
Cr       7.20000000       1.80000000       9.00000000
Cr       7.20000000       1.80000000      12.60000000
Cr       7.20000000       5.40000000       1.80000000
Cr       7.20000000       5.40000000       5.40000000
Cr       7.20000000       5.40000000       9.00000000
Cr       7.20000000       5.40000000      12.60000000
Cr       7.20000000       9.00000000       1.80000000
Cr       7.20000000       9.00000000       5.40000000
Cr       7.20000000       9.00000000       9.00000000
Cr       7.20000000       9.00000000      12.60000000
Cr       7.20000000      12.60000000       5.40000000
Cr       7.20000000      12.60000000       9.00000000
Cr       7.20000000      12.60000000      12.60000000
Cr      10.80000000       1.80000000       5.40000000
Cr      10.80000000       1.80000000      12.60000000
Cr      10.80000000       5.40000000       1.80000000
Cr      10.80000000       5.40000000       5.40000000
Cr      10.80000000       5.40000000       9.00000000
Cr      10.80000000       5.40000000      12.60000000
Cr      10.80000000       9.00000000       1.80000000
Cr      10.80000000       9.00000000       5.40000000
Cr      10.80000000       9.00000000       9.00000000
Cr      10.80000000       9.00000000      12.60000000
Cr      10.80000000      12.60000000       1.80000000
Cr      10.80000000      12.60000000       5.40000000
Cr      10.80000000      12.60000000       9.00000000
Cr      10.80000000      12.60000000      12.60000000
Fe       0.00000000       0.00000000       0.00000000
Fe       1.80000000       1.80000000       0.00000000
Fe       0.00000000       0.00000000       3.60000000
Fe       1.80000000       1.80000000       3.60000000
Fe       1.80000000       0.00000000       5.40000000
Fe       1.80000000       1.80000000       7.20000000
Fe       1.80000000       1.80000000      10.80000000
Fe       1.80000000       5.40000000       0.00000000
Fe       1.80000000       3.60000000       1.80000000
Fe       0.00000000       3.60000000       3.60000000
Fe       1.80000000       5.40000000       3.60000000
Fe       1.80000000       5.40000000       7.20000000
Fe       1.80000000       3.60000000       9.00000000
Fe       0.00000000       3.60000000      10.80000000
Fe       1.80000000       5.40000000      10.80000000
Fe       1.80000000       3.60000000      12.60000000
Fe       1.80000000       9.00000000       0.00000000
Fe       0.00000000       7.20000000       3.60000000
Fe       1.80000000       9.00000000       3.60000000
Fe       0.00000000       7.20000000       7.20000000
Fe       1.80000000       9.00000000      10.80000000
Fe       1.80000000      10.80000000       1.80000000
Fe       0.00000000      10.80000000       3.60000000
Fe       1.80000000      12.60000000       3.60000000
Fe       1.80000000      10.80000000       5.40000000
Fe       1.80000000      10.80000000       9.00000000
Fe       1.80000000      12.60000000      10.80000000
Fe       1.80000000      10.80000000      12.60000000
Fe       5.40000000       0.00000000       1.80000000
Fe       5.40000000       1.80000000       3.60000000
Fe       5.40000000       1.80000000       7.20000000
Fe       5.40000000       1.80000000      10.80000000
Fe       5.40000000       0.00000000      12.60000000
Fe       3.60000000       3.60000000       0.00000000
Fe       5.40000000       5.40000000       0.00000000
Fe       5.40000000       3.60000000       1.80000000
Fe       3.60000000       3.60000000       3.60000000
Fe       5.40000000       5.40000000       3.60000000
Fe       5.40000000       3.60000000       5.40000000
Fe       5.40000000       5.40000000       7.20000000
Fe       5.40000000       3.60000000       9.00000000
Fe       3.60000000       3.60000000      10.80000000
Fe       5.40000000       5.40000000      10.80000000
Fe       5.40000000       3.60000000      12.60000000
Fe       5.40000000       9.00000000       0.00000000
Fe       5.40000000       9.00000000       3.60000000
Fe       5.40000000       9.00000000       7.20000000
Fe       5.40000000       9.00000000      10.80000000
Fe       5.40000000      12.60000000       0.00000000
Fe       5.40000000      10.80000000       1.80000000
Fe       3.60000000      10.80000000       3.60000000
Fe       5.40000000      12.60000000       3.60000000
Fe       5.40000000      10.80000000       5.40000000
Fe       5.40000000      12.60000000       7.20000000
Fe       5.40000000      10.80000000       9.00000000
Fe       5.40000000      12.60000000      10.80000000
Fe       5.40000000      10.80000000      12.60000000
Fe       9.00000000       1.80000000       0.00000000
Fe       7.20000000       0.00000000       3.60000000
Fe       9.00000000       1.80000000       3.60000000
Fe       9.00000000       1.80000000      10.80000000
Fe       7.20000000       3.60000000       0.00000000
Fe       9.00000000       5.40000000       0.00000000
Fe       9.00000000       3.60000000       1.80000000
Fe       7.20000000       3.60000000       3.60000000
Fe       9.00000000       3.60000000       5.40000000
Fe       9.00000000       5.40000000       7.20000000
Fe       9.00000000       3.60000000       9.00000000
Fe       9.00000000       5.40000000      10.80000000
Fe       9.00000000       3.60000000      12.60000000
Fe       9.00000000       9.00000000       3.60000000
Fe       9.00000000       7.20000000       5.40000000
Fe       9.00000000      12.60000000       0.00000000
Fe       7.20000000      12.60000000       1.80000000
Fe       7.20000000      10.80000000       3.60000000
Fe       9.00000000      12.60000000       3.60000000
Fe       9.00000000      10.80000000       5.40000000
Fe       7.20000000      10.80000000      10.80000000
Fe       9.00000000      12.60000000      10.80000000
Fe      12.60000000       1.80000000       0.00000000
Fe      12.60000000       1.80000000       3.60000000
Fe      12.60000000       1.80000000       7.20000000
Fe      12.60000000       1.80000000      10.80000000
Fe      12.60000000       0.00000000      12.60000000
Fe      10.80000000       3.60000000       0.00000000
Fe      12.60000000       5.40000000       0.00000000
Fe      12.60000000       3.60000000       1.80000000
Fe      12.60000000       3.60000000       5.40000000
Fe      12.60000000       5.40000000       7.20000000
Fe      12.60000000       3.60000000       9.00000000
Fe      10.80000000       3.60000000      10.80000000
Fe      12.60000000       5.40000000      10.80000000
Fe      12.60000000       3.60000000      12.60000000
Fe      12.60000000       9.00000000       0.00000000
Fe      12.60000000       9.00000000       3.60000000
Fe      12.60000000       9.00000000      10.80000000
Fe      12.60000000      12.60000000       0.00000000
Fe      10.80000000      10.80000000       3.60000000
Fe      12.60000000      12.60000000       3.60000000
Fe      12.60000000      10.80000000       5.40000000
Fe      12.60000000      12.60000000       7.20000000
Fe      12.60000000      10.80000000       9.00000000
Fe      10.80000000      10.80000000      10.80000000
Fe      12.60000000      12.60000000      10.80000000
Fe      12.60000000      10.80000000      12.60000000
Fe       0.00000000       0.00000000       7.20000000
Fe       0.00000000       3.60000000       0.00000000
Fe       1.80000000       3.60000000       5.40000000
Fe       0.00000000       3.60000000       7.20000000
Fe       1.80000000       9.00000000       7.20000000
Fe       0.00000000      10.80000000       0.00000000
Fe       1.80000000      12.60000000       0.00000000
Fe       0.00000000      10.80000000       7.20000000
Fe       1.80000000      12.60000000       7.20000000
Fe       0.00000000      10.80000000      10.80000000
Fe       5.40000000       1.80000000       0.00000000
Fe       5.40000000       0.00000000       5.40000000
Fe       3.60000000       3.60000000       7.20000000
Fe       3.60000000       7.20000000      10.80000000
Fe       3.60000000      10.80000000       0.00000000
Fe       3.60000000      10.80000000       7.20000000
Fe       3.60000000      10.80000000      10.80000000
Fe       7.20000000       0.00000000       7.20000000
Fe       9.00000000       1.80000000       7.20000000
Fe       9.00000000       5.40000000       3.60000000
Fe       7.20000000       3.60000000       7.20000000
Fe       7.20000000       3.60000000      10.80000000
Fe       9.00000000       9.00000000       0.00000000
Fe       9.00000000       9.00000000       7.20000000
Fe       9.00000000       9.00000000      10.80000000
Fe       7.20000000      10.80000000       0.00000000
Fe       9.00000000      10.80000000       1.80000000
Fe       7.20000000      10.80000000       7.20000000
Fe       9.00000000      12.60000000       7.20000000
Fe       9.00000000      10.80000000       9.00000000
Fe       9.00000000      10.80000000      12.60000000
Fe      10.80000000       3.60000000       3.60000000
Fe      12.60000000       5.40000000       3.60000000
Fe      10.80000000       3.60000000       7.20000000
Fe      12.60000000       9.00000000       7.20000000
Fe      10.80000000      10.80000000       0.00000000
Fe      12.60000000      10.80000000       1.80000000
Fe      10.80000000      10.80000000       7.20000000
Fe       0.00000000       1.80000000       1.80000000
Fe       0.00000000       1.80000000       5.40000000
Fe       0.00000000       5.40000000       5.40000000
Fe       0.00000000       9.00000000       1.80000000
Fe       0.00000000       9.00000000       5.40000000
Fe       0.00000000      12.60000000       1.80000000
Fe       0.00000000      12.60000000       5.40000000
Fe       0.00000000      12.60000000      12.60000000
Fe       7.20000000       1.80000000       1.80000000
Fe       7.20000000       1.80000000       5.40000000
Fe      10.80000000       1.80000000       1.80000000
Ni       1.80000000       0.00000000       1.80000000
Ni       1.80000000       0.00000000       9.00000000
Ni       1.80000000       0.00000000      12.60000000
Ni       1.80000000       7.20000000       1.80000000
Ni       1.80000000       7.20000000       9.00000000
Ni       0.00000000       7.20000000      10.80000000
Ni       1.80000000       7.20000000      12.60000000
Ni       3.60000000       0.00000000       0.00000000
Ni       3.60000000       0.00000000       3.60000000
Ni       3.60000000       0.00000000       7.20000000
Ni       5.40000000       0.00000000       9.00000000
Ni       3.60000000       0.00000000      10.80000000
Ni       5.40000000       7.20000000       1.80000000
Ni       3.60000000       7.20000000       3.60000000
Ni       5.40000000       7.20000000       5.40000000
Ni       5.40000000       7.20000000       9.00000000
Ni       5.40000000       7.20000000      12.60000000
Ni       7.20000000       0.00000000       0.00000000
Ni       9.00000000       0.00000000       1.80000000
Ni       9.00000000       0.00000000       5.40000000
Ni       9.00000000       0.00000000       9.00000000
Ni       7.20000000       0.00000000      10.80000000
Ni       9.00000000       0.00000000      12.60000000
Ni       9.00000000       7.20000000       1.80000000
Ni       7.20000000       7.20000000       3.60000000
Ni       9.00000000       7.20000000       9.00000000
Ni       9.00000000       7.20000000      12.60000000
Ni      10.80000000       0.00000000       0.00000000
Ni      12.60000000       0.00000000       1.80000000
Ni      12.60000000       0.00000000       5.40000000
Ni      12.60000000       0.00000000       9.00000000
Ni      10.80000000       0.00000000      10.80000000
Ni      12.60000000       7.20000000       1.80000000
Ni      10.80000000       7.20000000       3.60000000
Ni      12.60000000       7.20000000       5.40000000
Ni      12.60000000       7.20000000       9.00000000
Ni      12.60000000       7.20000000      12.60000000
Ni       0.00000000       0.00000000      10.80000000
Ni       0.00000000       7.20000000       0.00000000
Ni       1.80000000       7.20000000       5.40000000
Ni       3.60000000       7.20000000       0.00000000
Ni       3.60000000       7.20000000       7.20000000
Ni       7.20000000       7.20000000       0.00000000
Ni       7.20000000       7.20000000       7.20000000
Ni       7.20000000       7.20000000      10.80000000
Ni      10.80000000       0.00000000       3.60000000
Ni      10.80000000       0.00000000       7.20000000
Ni      10.80000000       7.20000000       0.00000000
Ni      10.80000000       7.20000000       7.20000000
Ni      10.80000000       7.20000000      10.80000000
Ni      10.80000000       1.80000000       9.00000000
